1
    SWAT Nov 14  VER 2023/Rev 692                                                                        0/ 0/   0      0: 0: 0

    General Input/Output section (file.cio):                                        
    9/21/2021 12:00:00 AM ARCGIS-SWAT interface AV                                  
                                                                                    


       RCH      GIS   MON     AREAkm2  FLOW_INcms FLOW_OUTcms     EVAPcms    TLOSScms  SED_INtons SED_OUTtons SEDCONCmg/L   ORGN_INkg  ORGN_OUTkg   ORGP_INkg  ORGP_OUTkg    NO3_INkg   NO3_OUTkg    NH4_INkg   NH4_OUTkg    NO2_INkg   NO2_OUTkg   MINP_INkg  MINP_OUTkg   CHLA_INkg  CHLA_OUTkg   CBOD_INkg  CBOD_OUTkg  DISOX_INkg DISOX_OUTkg SOLPST_INmgSOLPST_OUTmg SORPST_INmgSORPST_OUTmg  REACTPSTmg    VOLPSTmg  SETTLPSTmgRESUSP_PSTmgDIFFUSEPSTmgREACBEDPSTmg   BURYPSTmg   BED_PSTmg BACTP_OUTctBACTLP_OUTct  CMETAL#1kg  CMETAL#2kg  CMETAL#3kg     TOT Nkg     TOT Pkg NO3ConcMg/l    WTMPdegc     Salt1       Salt2       Salt3       Salt4       Salt5       Salt6       Salt7       Salt8       Salt9       Salt10       SAR           EC  
REACH    1        0     1  0.1150E+03  0.2646E+01  0.2635E+01  0.1252E-01  0.0000E+00  0.3500E-08  0.0000E+00  0.0000E+00  0.9320E-05  0.0000E+00  0.2796E-04  0.0000E+00  0.6123E+01  0.6192E+01  0.0000E+00  0.4721E-01  0.0000E+00  0.1862E-02  0.9331E-05  0.0000E+00  0.3110E-12  0.0000E+00  0.0000E+00  0.0000E+00  0.2037E+04  0.1986E+04  0.0000E+00  0.0000E+00  0.0000E+00  0.0000E+00  0.0000E+00  0.0000E+00  0.0000E+00  0.0000E+00  0.0000E+00  0.0000E+00  0.0000E+00  0.0000E+00  0.0000E+00  0.0000E+00  0.0000E+00  0.0000E+00  0.0000E+00  0.6241E+01  0.0000E+00  0.2720E-01  0.2101E+02  0.0000E+00  0.0000E+00  0.0000E+00  0.0000E+00  0.0000E+00  0.0000E+00  0.0000E+00  0.0000E+00  0.0000E+00  0.0000E+00  0.0000E+00  0.0000E+00
REACH    2        0     1  0.3473E+02  0.9525E+00  0.9515E+00  0.9470E-03  0.0000E+00  0.3725E-08  0.0000E+00  0.0000E+00  0.3030E-05  0.0000E+00  0.9091E-05  0.0000E+00  0.1670E+01  0.1671E+01  0.0000E+00  0.1568E-02  0.0000E+00  0.0000E+00  0.3034E-05  0.0000E+00  0.9408E-13  0.0000E+00  0.0000E+00  0.0000E+00  0.7335E+03  0.7174E+03  0.0000E+00  0.0000E+00  0.0000E+00  0.0000E+00  0.0000E+00  0.0000E+00  0.0000E+00  0.0000E+00  0.0000E+00  0.0000E+00  0.0000E+00  0.0000E+00  0.0000E+00  0.0000E+00  0.0000E+00  0.0000E+00  0.0000E+00  0.1672E+01  0.0000E+00  0.2032E-01  0.2101E+02  0.0000E+00  0.0000E+00  0.0000E+00  0.0000E+00  0.0000E+00  0.0000E+00  0.0000E+00  0.0000E+00  0.0000E+00  0.0000E+00  0.0000E+00  0.0000E+00
REACH    3        0     1  0.1505E+03  0.3602E+01  0.3604E+01  0.7278E-03  0.0000E+00  0.3909E-08  0.2757E+02  0.8853E+02  0.7646E-07  0.0000E+00  0.2294E-06  0.0000E+00  0.7922E+01  0.7937E+01  0.4877E-01  0.6423E-01  0.1862E-02  0.2341E-02  0.7654E-07  0.0000E+00  0.3464E-14  0.0000E+00  0.0000E+00  0.0000E+00  0.2716E+04  0.2717E+04  0.0000E+00  0.0000E+00  0.0000E+00  0.0000E+00  0.0000E+00  0.0000E+00  0.0000E+00  0.0000E+00  0.0000E+00  0.0000E+00  0.0000E+00  0.0000E+00  0.0000E+00  0.0000E+00  0.0000E+00  0.0000E+00  0.0000E+00  0.8004E+01  0.0000E+00  0.2549E-01  0.2101E+02  0.0000E+00  0.0000E+00  0.0000E+00  0.0000E+00  0.0000E+00  0.0000E+00  0.0000E+00  0.0000E+00  0.0000E+00  0.0000E+00  0.0000E+00  0.0000E+00
REACH    4        0     1  0.4598E+02  0.1245E+01  0.1243E+01  0.2002E-02  0.0000E+00  0.3620E-08  0.0000E+00  0.0000E+00  0.3836E-05  0.0000E+00  0.1151E-04  0.0000E+00  0.2303E+01  0.2306E+01  0.0000E+00  0.3888E-01  0.0000E+00  0.0000E+00  0.3840E-05  0.0000E+00  0.1169E-12  0.0000E+00  0.0000E+00  0.0000E+00  0.9587E+03  0.9371E+03  0.0000E+00  0.0000E+00  0.0000E+00  0.0000E+00  0.0000E+00  0.0000E+00  0.0000E+00  0.0000E+00  0.0000E+00  0.0000E+00  0.0000E+00  0.0000E+00  0.0000E+00  0.0000E+00  0.0000E+00  0.0000E+00  0.0000E+00  0.2345E+01  0.0000E+00  0.2147E-01  0.2101E+02  0.0000E+00  0.0000E+00  0.0000E+00  0.0000E+00  0.0000E+00  0.0000E+00  0.0000E+00  0.0000E+00  0.0000E+00  0.0000E+00  0.0000E+00  0.0000E+00
REACH    5        0     1  0.2068E+03  0.5062E+01  0.5060E+01  0.2716E-02  0.0000E+00  0.2757E+02  0.4456E+02  0.1019E+03  0.9766E-06  0.0000E+00  0.2930E-05  0.0000E+00  0.1106E+02  0.1108E+02  0.1031E+00  0.1568E+00  0.2341E-02  0.4987E-02  0.9776E-06  0.0000E+00  0.4156E-13  0.0000E+00  0.0000E+00  0.0000E+00  0.3819E+04  0.3814E+04  0.0000E+00  0.0000E+00  0.0000E+00  0.0000E+00  0.0000E+00  0.0000E+00  0.0000E+00  0.0000E+00  0.0000E+00  0.0000E+00  0.0000E+00  0.0000E+00  0.0000E+00  0.0000E+00  0.0000E+00  0.0000E+00  0.0000E+00  0.1124E+02  0.0000E+00  0.2535E-01  0.2101E+02  0.0000E+00  0.0000E+00  0.0000E+00  0.0000E+00  0.0000E+00  0.0000E+00  0.0000E+00  0.0000E+00  0.0000E+00  0.0000E+00  0.0000E+00  0.0000E+00
REACH    6        0     1  0.4034E+02  0.8815E+00  0.8897E+00  0.3133E-02  0.0000E+00  0.3580E-08  0.0000E+00  0.0000E+00  0.3318E-05  0.0000E+00  0.9954E-05  0.0000E+00  0.2666E+01  0.2712E+01  0.0000E+00  0.1847E-01  0.0000E+00  0.4068E-03  0.3322E-05  0.0000E+00  0.1158E-12  0.0000E+00  0.0000E+00  0.0000E+00  0.6784E+03  0.6707E+03  0.0000E+00  0.0000E+00  0.0000E+00  0.0000E+00  0.0000E+00  0.0000E+00  0.0000E+00  0.0000E+00  0.0000E+00  0.0000E+00  0.0000E+00  0.0000E+00  0.0000E+00  0.0000E+00  0.0000E+00  0.0000E+00  0.0000E+00  0.2731E+01  0.0000E+00  0.3529E-01  0.2101E+02  0.0000E+00  0.0000E+00  0.0000E+00  0.0000E+00  0.0000E+00  0.0000E+00  0.0000E+00  0.0000E+00  0.0000E+00  0.0000E+00  0.0000E+00  0.0000E+00
REACH    7        0     1  0.2482E+03  0.5971E+01  0.5970E+01  0.6252E-03  0.0000E+00  0.4456E+02  0.7688E+02  0.1490E+03  0.1049E-06  0.0000E+00  0.3146E-06  0.0000E+00  0.1388E+02  0.1389E+02  0.1752E+00  0.1878E+00  0.5394E-02  0.5997E-02  0.1050E-06  0.0000E+00  0.4706E-14  0.0000E+00  0.0000E+00  0.0000E+00  0.4502E+04  0.4501E+04  0.0000E+00  0.0000E+00  0.0000E+00  0.0000E+00  0.0000E+00  0.0000E+00  0.0000E+00  0.0000E+00  0.0000E+00  0.0000E+00  0.0000E+00  0.0000E+00  0.0000E+00  0.0000E+00  0.0000E+00  0.0000E+00  0.0000E+00  0.1408E+02  0.0000E+00  0.2692E-01  0.2101E+02  0.0000E+00  0.0000E+00  0.0000E+00  0.0000E+00  0.0000E+00  0.0000E+00  0.0000E+00  0.0000E+00  0.0000E+00  0.0000E+00  0.0000E+00  0.0000E+00
REACH    1        0     2  0.1150E+03  0.2582E+01  0.2570E+01  0.1440E-01  0.0000E+00  0.3500E-08  0.0000E+00  0.0000E+00  0.9320E-05  0.0000E+00  0.2796E-04  0.0000E+00  0.5569E+01  0.5630E+01  0.0000E+00  0.2419E-01  0.0000E+00  0.9543E-03  0.9331E-05  0.0000E+00  0.3187E-12  0.0000E+00  0.0000E+00  0.0000E+00  0.1985E+04  0.1934E+04  0.0000E+00  0.0000E+00  0.0000E+00  0.0000E+00  0.0000E+00  0.0000E+00  0.0000E+00  0.0000E+00  0.0000E+00  0.0000E+00  0.0000E+00  0.0000E+00  0.0000E+00  0.0000E+00  0.0000E+00  0.0000E+00  0.0000E+00  0.5655E+01  0.0000E+00  0.2536E-01  0.2109E+02  0.0000E+00  0.0000E+00  0.0000E+00  0.0000E+00  0.0000E+00  0.0000E+00  0.0000E+00  0.0000E+00  0.0000E+00  0.0000E+00  0.0000E+00  0.0000E+00
REACH    2        0     2  0.3473E+02  0.9309E+00  0.9298E+00  0.1089E-02  0.0000E+00  0.3725E-08  0.0000E+00  0.0000E+00  0.3030E-05  0.0000E+00  0.9091E-05  0.0000E+00  0.1546E+01  0.1547E+01  0.0000E+00  0.1890E-01  0.0000E+00  0.0000E+00  0.3034E-05  0.0000E+00  0.9627E-13  0.0000E+00  0.0000E+00  0.0000E+00  0.7158E+03  0.6999E+03  0.0000E+00  0.0000E+00  0.0000E+00  0.0000E+00  0.0000E+00  0.0000E+00  0.0000E+00  0.0000E+00  0.0000E+00  0.0000E+00  0.0000E+00  0.0000E+00  0.0000E+00  0.0000E+00  0.0000E+00  0.0000E+00  0.0000E+00  0.1565E+01  0.0000E+00  0.1925E-01  0.2109E+02  0.0000E+00  0.0000E+00  0.0000E+00  0.0000E+00  0.0000E+00  0.0000E+00  0.0000E+00  0.0000E+00  0.0000E+00  0.0000E+00  0.0000E+00  0.0000E+00
REACH    3        0     2  0.1505E+03  0.3515E+01  0.3514E+01  0.8356E-03  0.0000E+00  0.3909E-08  0.2621E+02  0.8632E+02  0.7646E-07  0.0000E+00  0.2294E-06  0.0000E+00  0.7231E+01  0.7238E+01  0.4309E-01  0.5771E-01  0.9543E-03  0.1376E-02  0.7654E-07  0.0000E+00  0.3547E-14  0.0000E+00  0.0000E+00  0.0000E+00  0.2646E+04  0.2645E+04  0.0000E+00  0.0000E+00  0.0000E+00  0.0000E+00  0.0000E+00  0.0000E+00  0.0000E+00  0.0000E+00  0.0000E+00  0.0000E+00  0.0000E+00  0.0000E+00  0.0000E+00  0.0000E+00  0.0000E+00  0.0000E+00  0.0000E+00  0.7297E+01  0.0000E+00  0.2384E-01  0.2109E+02  0.0000E+00  0.0000E+00  0.0000E+00  0.0000E+00  0.0000E+00  0.0000E+00  0.0000E+00  0.0000E+00  0.0000E+00  0.0000E+00  0.0000E+00  0.0000E+00
REACH    4        0     2  0.4598E+02  0.1217E+01  0.1215E+01  0.2303E-02  0.0000E+00  0.3620E-08  0.0000E+00  0.0000E+00  0.3836E-05  0.0000E+00  0.1151E-04  0.0000E+00  0.2135E+01  0.2137E+01  0.0000E+00  0.5947E-02  0.0000E+00  0.0000E+00  0.3840E-05  0.0000E+00  0.1196E-12  0.0000E+00  0.0000E+00  0.0000E+00  0.9358E+03  0.9144E+03  0.0000E+00  0.0000E+00  0.0000E+00  0.0000E+00  0.0000E+00  0.0000E+00  0.0000E+00  0.0000E+00  0.0000E+00  0.0000E+00  0.0000E+00  0.0000E+00  0.0000E+00  0.0000E+00  0.0000E+00  0.0000E+00  0.0000E+00  0.2143E+01  0.0000E+00  0.2036E-01  0.2109E+02  0.0000E+00  0.0000E+00  0.0000E+00  0.0000E+00  0.0000E+00  0.0000E+00  0.0000E+00  0.0000E+00  0.0000E+00  0.0000E+00  0.0000E+00  0.0000E+00
REACH    5        0     2  0.2068E+03  0.4939E+01  0.4936E+01  0.3126E-02  0.0000E+00  0.2621E+02  0.4241E+02  0.9944E+02  0.9766E-06  0.0000E+00  0.2930E-05  0.0000E+00  0.1013E+02  0.1015E+02  0.6366E-01  0.1191E+00  0.1376E-02  0.3120E-02  0.9776E-06  0.0000E+00  0.4251E-13  0.0000E+00  0.0000E+00  0.0000E+00  0.3720E+04  0.3715E+04  0.0000E+00  0.0000E+00  0.0000E+00  0.0000E+00  0.0000E+00  0.0000E+00  0.0000E+00  0.0000E+00  0.0000E+00  0.0000E+00  0.0000E+00  0.0000E+00  0.0000E+00  0.0000E+00  0.0000E+00  0.0000E+00  0.0000E+00  0.1027E+02  0.0000E+00  0.2380E-01  0.2109E+02  0.0000E+00  0.0000E+00  0.0000E+00  0.0000E+00  0.0000E+00  0.0000E+00  0.0000E+00  0.0000E+00  0.0000E+00  0.0000E+00  0.0000E+00  0.0000E+00
REACH    6        0     2  0.4034E+02  0.8608E+00  0.8575E+00  0.3602E-02  0.0000E+00  0.3580E-08  0.0000E+00  0.0000E+00  0.3318E-05  0.0000E+00  0.9954E-05  0.0000E+00  0.2451E+01  0.2459E+01  0.0000E+00  0.5513E-02  0.0000E+00  0.1262E-03  0.3322E-05  0.0000E+00  0.1186E-12  0.0000E+00  0.0000E+00  0.0000E+00  0.6615E+03  0.6455E+03  0.0000E+00  0.0000E+00  0.0000E+00  0.0000E+00  0.0000E+00  0.0000E+00  0.0000E+00  0.0000E+00  0.0000E+00  0.0000E+00  0.0000E+00  0.0000E+00  0.0000E+00  0.0000E+00  0.0000E+00  0.0000E+00  0.0000E+00  0.2465E+01  0.0000E+00  0.3319E-01  0.2109E+02  0.0000E+00  0.0000E+00  0.0000E+00  0.0000E+00  0.0000E+00  0.0000E+00  0.0000E+00  0.0000E+00  0.0000E+00  0.0000E+00  0.0000E+00  0.0000E+00
REACH    7        0     2  0.2482E+03  0.5815E+01  0.5814E+01  0.7175E-03  0.0000E+00  0.4241E+02  0.7291E+02  0.1451E+03  0.1049E-06  0.0000E+00  0.3146E-06  0.0000E+00  0.1269E+02  0.1270E+02  0.1246E+00  0.1374E+00  0.3246E-02  0.3698E-02  0.1050E-06  0.0000E+00  0.4814E-14  0.0000E+00  0.0000E+00  0.0000E+00  0.4377E+04  0.4376E+04  0.0000E+00  0.0000E+00  0.0000E+00  0.0000E+00  0.0000E+00  0.0000E+00  0.0000E+00  0.0000E+00  0.0000E+00  0.0000E+00  0.0000E+00  0.0000E+00  0.0000E+00  0.0000E+00  0.0000E+00  0.0000E+00  0.0000E+00  0.1284E+02  0.0000E+00  0.2527E-01  0.2109E+02  0.0000E+00  0.0000E+00  0.0000E+00  0.0000E+00  0.0000E+00  0.0000E+00  0.0000E+00  0.0000E+00  0.0000E+00  0.0000E+00  0.0000E+00  0.0000E+00
REACH    1        0     3  0.1150E+03  0.2520E+01  0.2549E+01  0.1003E-01  0.0000E+00  0.3500E-08  0.0000E+00  0.0000E+00  0.9320E-05  0.0000E+00  0.2796E-04  0.0000E+00  0.5073E+01  0.5213E+01  0.0000E+00  0.1282E-01  0.0000E+00  0.4814E-03  0.9331E-05  0.0000E+00  0.3265E-12  0.0000E+00  0.0000E+00  0.0000E+00  0.1962E+04  0.1945E+04  0.0000E+00  0.0000E+00  0.0000E+00  0.0000E+00  0.0000E+00  0.0000E+00  0.0000E+00  0.0000E+00  0.0000E+00  0.0000E+00  0.0000E+00  0.0000E+00  0.0000E+00  0.0000E+00  0.0000E+00  0.0000E+00  0.0000E+00  0.5226E+01  0.0000E+00  0.2367E-01  0.2045E+02  0.0000E+00  0.0000E+00  0.0000E+00  0.0000E+00  0.0000E+00  0.0000E+00  0.0000E+00  0.0000E+00  0.0000E+00  0.0000E+00  0.0000E+00  0.0000E+00
REACH    2        0     3  0.3473E+02  0.9097E+00  0.9090E+00  0.7598E-03  0.0000E+00  0.3725E-08  0.0000E+00  0.0000E+00  0.3030E-05  0.0000E+00  0.9091E-05  0.0000E+00  0.1431E+01  0.1432E+01  0.0000E+00  0.1675E-02  0.0000E+00  0.0000E+00  0.3034E-05  0.0000E+00  0.9851E-13  0.0000E+00  0.0000E+00  0.0000E+00  0.7083E+03  0.6934E+03  0.0000E+00  0.0000E+00  0.0000E+00  0.0000E+00  0.0000E+00  0.0000E+00  0.0000E+00  0.0000E+00  0.0000E+00  0.0000E+00  0.0000E+00  0.0000E+00  0.0000E+00  0.0000E+00  0.0000E+00  0.0000E+00  0.0000E+00  0.1434E+01  0.0000E+00  0.1824E-01  0.2045E+02  0.0000E+00  0.0000E+00  0.0000E+00  0.0000E+00  0.0000E+00  0.0000E+00  0.0000E+00  0.0000E+00  0.0000E+00  0.0000E+00  0.0000E+00  0.0000E+00
REACH    3        0     3  0.1505E+03  0.3473E+01  0.3473E+01  0.5828E-03  0.0000E+00  0.3909E-08  0.2559E+02  0.8529E+02  0.7646E-07  0.0000E+00  0.2294E-06  0.0000E+00  0.6696E+01  0.6702E+01  0.1449E-01  0.2911E-01  0.4814E-03  0.6272E-03  0.7654E-07  0.0000E+00  0.3633E-14  0.0000E+00  0.0000E+00  0.0000E+00  0.2650E+04  0.2649E+04  0.0000E+00  0.0000E+00  0.0000E+00  0.0000E+00  0.0000E+00  0.0000E+00  0.0000E+00  0.0000E+00  0.0000E+00  0.0000E+00  0.0000E+00  0.0000E+00  0.0000E+00  0.0000E+00  0.0000E+00  0.0000E+00  0.0000E+00  0.6732E+01  0.0000E+00  0.2234E-01  0.2045E+02  0.0000E+00  0.0000E+00  0.0000E+00  0.0000E+00  0.0000E+00  0.0000E+00  0.0000E+00  0.0000E+00  0.0000E+00  0.0000E+00  0.0000E+00  0.0000E+00
REACH    4        0     3  0.4598E+02  0.1190E+01  0.1188E+01  0.1606E-02  0.0000E+00  0.3620E-08  0.0000E+00  0.0000E+00  0.3836E-05  0.0000E+00  0.1151E-04  0.0000E+00  0.1979E+01  0.1983E+01  0.0000E+00  0.9289E-03  0.0000E+00  0.0000E+00  0.3840E-05  0.0000E+00  0.1224E-12  0.0000E+00  0.0000E+00  0.0000E+00  0.9263E+03  0.9063E+03  0.0000E+00  0.0000E+00  0.0000E+00  0.0000E+00  0.0000E+00  0.0000E+00  0.0000E+00  0.0000E+00  0.0000E+00  0.0000E+00  0.0000E+00  0.0000E+00  0.0000E+00  0.0000E+00  0.0000E+00  0.0000E+00  0.0000E+00  0.1984E+01  0.0000E+00  0.1931E-01  0.2045E+02  0.0000E+00  0.0000E+00  0.0000E+00  0.0000E+00  0.0000E+00  0.0000E+00  0.0000E+00  0.0000E+00  0.0000E+00  0.0000E+00  0.0000E+00  0.0000E+00
REACH    5        0     3  0.2068E+03  0.4866E+01  0.4864E+01  0.2181E-02  0.0000E+00  0.2559E+02  0.4117E+02  0.9797E+02  0.9766E-06  0.0000E+00  0.2930E-05  0.0000E+00  0.9385E+01  0.9406E+01  0.3004E-01  0.8395E-01  0.6272E-03  0.1501E-02  0.9776E-06  0.0000E+00  0.4349E-13  0.0000E+00  0.0000E+00  0.0000E+00  0.3714E+04  0.3710E+04  0.0000E+00  0.0000E+00  0.0000E+00  0.0000E+00  0.0000E+00  0.0000E+00  0.0000E+00  0.0000E+00  0.0000E+00  0.0000E+00  0.0000E+00  0.0000E+00  0.0000E+00  0.0000E+00  0.0000E+00  0.0000E+00  0.0000E+00  0.9492E+01  0.0000E+00  0.2238E-01  0.2045E+02  0.0000E+00  0.0000E+00  0.0000E+00  0.0000E+00  0.0000E+00  0.0000E+00  0.0000E+00  0.0000E+00  0.0000E+00  0.0000E+00  0.0000E+00  0.0000E+00
REACH    6        0     3  0.4034E+02  0.8406E+00  0.8382E+00  0.2513E-02  0.0000E+00  0.3580E-08  0.0000E+00  0.0000E+00  0.3318E-05  0.0000E+00  0.9954E-05  0.0000E+00  0.2254E+01  0.2264E+01  0.0000E+00  0.1698E-02  0.0000E+00  0.0000E+00  0.3322E-05  0.0000E+00  0.1215E-12  0.0000E+00  0.0000E+00  0.0000E+00  0.6542E+03  0.6394E+03  0.0000E+00  0.0000E+00  0.0000E+00  0.0000E+00  0.0000E+00  0.0000E+00  0.0000E+00  0.0000E+00  0.0000E+00  0.0000E+00  0.0000E+00  0.0000E+00  0.0000E+00  0.0000E+00  0.0000E+00  0.0000E+00  0.0000E+00  0.2266E+01  0.0000E+00  0.3127E-01  0.2045E+02  0.0000E+00  0.0000E+00  0.0000E+00  0.0000E+00  0.0000E+00  0.0000E+00  0.0000E+00  0.0000E+00  0.0000E+00  0.0000E+00  0.0000E+00  0.0000E+00
REACH    7        0     3  0.2482E+03  0.5723E+01  0.5723E+01  0.5004E-03  0.0000E+00  0.4117E+02  0.7063E+02  0.1428E+03  0.1049E-06  0.0000E+00  0.3146E-06  0.0000E+00  0.1175E+02  0.1175E+02  0.8565E-01  0.9794E-01  0.1501E-02  0.1809E-02  0.1050E-06  0.0000E+00  0.4925E-14  0.0000E+00  0.0000E+00  0.0000E+00  0.4366E+04  0.4365E+04  0.0000E+00  0.0000E+00  0.0000E+00  0.0000E+00  0.0000E+00  0.0000E+00  0.0000E+00  0.0000E+00  0.0000E+00  0.0000E+00  0.0000E+00  0.0000E+00  0.0000E+00  0.0000E+00  0.0000E+00  0.0000E+00  0.0000E+00  0.1185E+02  0.0000E+00  0.2376E-01  0.2045E+02  0.0000E+00  0.0000E+00  0.0000E+00  0.0000E+00  0.0000E+00  0.0000E+00  0.0000E+00  0.0000E+00  0.0000E+00  0.0000E+00  0.0000E+00  0.0000E+00
REACH    1        0     4  0.1150E+03  0.2483E+01  0.2472E+01  0.1356E-01  0.0000E+00  0.3500E-08  0.0000E+00  0.0000E+00  0.9320E-05  0.0000E+00  0.2796E-04  0.0000E+00  0.5343E+01  0.5275E+01  0.0000E+00  0.6315E-02  0.0000E+00  0.2840E-03  0.9331E-05  0.0000E+00  0.3315E-12  0.0000E+00  0.0000E+00  0.0000E+00  0.1861E+04  0.1811E+04  0.0000E+00  0.0000E+00  0.0000E+00  0.0000E+00  0.0000E+00  0.0000E+00  0.0000E+00  0.0000E+00  0.0000E+00  0.0000E+00  0.0000E+00  0.0000E+00  0.0000E+00  0.0000E+00  0.0000E+00  0.0000E+00  0.0000E+00  0.5281E+01  0.0000E+00  0.2469E-01  0.2240E+02  0.0000E+00  0.0000E+00  0.0000E+00  0.0000E+00  0.0000E+00  0.0000E+00  0.0000E+00  0.0000E+00  0.0000E+00  0.0000E+00  0.0000E+00  0.0000E+00
REACH    2        0     4  0.3473E+02  0.8926E+00  0.8916E+00  0.1027E-02  0.0000E+00  0.3725E-08  0.0000E+00  0.0000E+00  0.3030E-05  0.0000E+00  0.9091E-05  0.0000E+00  0.1430E+01  0.1428E+01  0.0000E+00  0.2074E-01  0.0000E+00  0.0000E+00  0.3034E-05  0.0000E+00  0.1004E-12  0.0000E+00  0.0000E+00  0.0000E+00  0.6691E+03  0.6532E+03  0.0000E+00  0.0000E+00  0.0000E+00  0.0000E+00  0.0000E+00  0.0000E+00  0.0000E+00  0.0000E+00  0.0000E+00  0.0000E+00  0.0000E+00  0.0000E+00  0.0000E+00  0.0000E+00  0.0000E+00  0.0000E+00  0.0000E+00  0.1449E+01  0.0000E+00  0.1854E-01  0.2240E+02  0.0000E+00  0.0000E+00  0.0000E+00  0.0000E+00  0.0000E+00  0.0000E+00  0.0000E+00  0.0000E+00  0.0000E+00  0.0000E+00  0.0000E+00  0.0000E+00
REACH    3        0     4  0.1505E+03  0.3379E+01  0.3378E+01  0.7880E-03  0.0000E+00  0.3909E-08  0.2421E+02  0.8297E+02  0.7646E-07  0.0000E+00  0.2294E-06  0.0000E+00  0.6756E+01  0.6750E+01  0.2705E-01  0.4294E-01  0.2840E-03  0.3011E-03  0.7654E-07  0.0000E+00  0.3694E-14  0.0000E+00  0.0000E+00  0.0000E+00  0.2475E+04  0.2475E+04  0.0000E+00  0.0000E+00  0.0000E+00  0.0000E+00  0.0000E+00  0.0000E+00  0.0000E+00  0.0000E+00  0.0000E+00  0.0000E+00  0.0000E+00  0.0000E+00  0.0000E+00  0.0000E+00  0.0000E+00  0.0000E+00  0.0000E+00  0.6794E+01  0.0000E+00  0.2313E-01  0.2240E+02  0.0000E+00  0.0000E+00  0.0000E+00  0.0000E+00  0.0000E+00  0.0000E+00  0.0000E+00  0.0000E+00  0.0000E+00  0.0000E+00  0.0000E+00  0.0000E+00
REACH    4        0     4  0.4598E+02  0.1167E+01  0.1165E+01  0.2172E-02  0.0000E+00  0.3620E-08  0.0000E+00  0.0000E+00  0.3836E-05  0.0000E+00  0.1151E-04  0.0000E+00  0.1987E+01  0.1982E+01  0.0000E+00  0.4278E-01  0.0000E+00  0.0000E+00  0.3840E-05  0.0000E+00  0.1247E-12  0.0000E+00  0.0000E+00  0.0000E+00  0.8749E+03  0.8535E+03  0.0000E+00  0.0000E+00  0.0000E+00  0.0000E+00  0.0000E+00  0.0000E+00  0.0000E+00  0.0000E+00  0.0000E+00  0.0000E+00  0.0000E+00  0.0000E+00  0.0000E+00  0.0000E+00  0.0000E+00  0.0000E+00  0.0000E+00  0.2024E+01  0.0000E+00  0.1969E-01  0.2240E+02  0.0000E+00  0.0000E+00  0.0000E+00  0.0000E+00  0.0000E+00  0.0000E+00  0.0000E+00  0.0000E+00  0.0000E+00  0.0000E+00  0.0000E+00  0.0000E+00
REACH    5        0     4  0.2068E+03  0.4744E+01  0.4753E+01  0.2944E-02  0.0000E+00  0.2421E+02  0.4166E+02  0.1015E+03  0.9766E-06  0.0000E+00  0.2930E-05  0.0000E+00  0.9450E+01  0.9455E+01  0.8572E-01  0.1422E+00  0.3011E-03  0.2329E-02  0.9776E-06  0.0000E+00  0.4430E-13  0.0000E+00  0.0000E+00  0.0000E+00  0.3478E+04  0.3482E+04  0.0000E+00  0.0000E+00  0.0000E+00  0.0000E+00  0.0000E+00  0.0000E+00  0.0000E+00  0.0000E+00  0.0000E+00  0.0000E+00  0.0000E+00  0.0000E+00  0.0000E+00  0.0000E+00  0.0000E+00  0.0000E+00  0.0000E+00  0.9600E+01  0.0000E+00  0.2302E-01  0.2240E+02  0.0000E+00  0.0000E+00  0.0000E+00  0.0000E+00  0.0000E+00  0.0000E+00  0.0000E+00  0.0000E+00  0.0000E+00  0.0000E+00  0.0000E+00  0.0000E+00